pglib_opf_case57_ieee.m
function mpc = pglib_opf_case57_ieee
mpc.version = '2';
mpc.baseMVA = 100.0;

%% bus data
%	bus_i	type	Pd	Qd	Gs	Bs	area	Vm	Va	baseKV	zone	Vmax	Vmin
mpc.bus = [
    1	3	49.5000 	15.3000 	0.0000 	0.000 	1 	1.0000 	0.0000 	1	1	1.0600 	0.9400; 
    2	2	2.7000 	79.2000 	0.0000 	0.000 	1 	1.0000 	0.0000 	1	1	1.0600 	0.9400 ;
    3	2	36.9000 	18.9000 	0.0000 	0.000 	1 	1.0000 	0.0000 	1	1	1.0600 	0.9400 ;
    4	1	0.0000 	0.0000 	0.0000 	0.000 	1 	1.0000 	0.0000 	1	1	1.0600 	0.9400 ;
    5	1	11.7000 	3.6000 	0.0000 	0.000 	1 	1.0000 	0.0000 	1	1	1.0600 	0.9400 ;
    6	2	67.5000 	1.8000 	0.0000 	0.000 	1 	1.0000 	0.0000 	1	1	1.0600 	0.9400 ;
    7	1	0.0000 	0.0000 	0.0000 	0.000 	1 	1.0000 	0.0000 	1	1	1.0600 	0.9400 ;
    8	2	135.0000 	19.8000 	0.0000 	0.000 	1 	1.0000 	0.0000 	1	1	1.0600 	0.9400 ;
    9	2	108.9000 	23.4000 	0.0000 	0.000 	1 	1.0000 	0.0000 	1	1	1.0600 	0.9400 ;
    10	1	4.5000 	1.8000 	0.0000 	0.000 	1 	1.0000 	0.0000 	1	1	1.0600 	0.9400 ;
    11	1	0.0000 	0.0000 	0.0000 	0.000 	1 	1.0000 	0.0000 	1	1	1.0600 	0.9400; 
    12	2	339.3000 	21.6000 	0.0000 	0.000 	1 	1.0000 	0.0000 	1	1	1.0600 	0.9400;
    13	1	16.2000 	2.0700 	0.0000 	0.000 	1 	1.0000 	0.0000 	1	1	1.0600 	0.9400 ;
    14	1	9.4500 	4.7700 	0.0000 	0.000 	1 	1.0000 	0.0000 	1	1	1.0600 	0.9400 ;
    15	1	19.8000 	4.5000 	0.0000 	0.000 	1 	1.0000 	0.0000 	1	1	1.0600 	0.9400; 
    16	1	38.7000 	2.7000 	0.0000 	0.000 	1 	1.0000 	0.0000 	1	1	1.0600 	0.9400 ;
    17	1	37.8000 	7.2000 	0.0000 	0.000 	1 	1.0000 	0.0000 	1	1	1.0600 	0.9400; 
    18	1	24.4800 	8.8200 	0.0000 	10.000 	1 	1.0000 	0.0000 	1	1	1.0600 	0.9400; 
    19	1	2.9700 	0.5400 	0.0000 	0.000 	1 	1.0000 	0.0000 	1	1	1.0600 	0.9400; 
    20	1	2.0700 	0.9000 	0.0000 	0.000 	1 	1.0000 	0.0000 	1	1	1.0600 	0.9400; 
    21	1	0.0000 	0.0000 	0.0000 	0.000 	1 	1.0000 	0.0000 	1	1	1.0600 	0.9400; 
    22	1	0.0000 	0.0000 	0.0000 	0.000 	1 	1.0000 	0.0000 	1	1	1.0600 	0.9400; 
    23	1	5.6700 	1.8900 	0.0000 	0.000 	1 	1.0000 	0.0000 	1	1	1.0600 	0.9400; 
    24	1	0.0000 	0.0000 	0.0000 	0.000 	1 	1.0000 	0.0000 	1	1	1.0600 	0.9400; 
    25	1	5.6700 	2.8800 	0.0000 	5.900 	1 	1.0000 	0.0000 	1	1	1.0600 	0.9400; 
    26	1	0.0000 	0.0000 	0.0000 	0.000 	1 	1.0000 	0.0000 	1	1	1.0600 	0.9400; 
    27	1	8.3700 	0.4500 	0.0000 	0.000 	1 	1.0000 	0.0000 	1	1	1.0600 	0.9400; 
    28	1	4.1400 	2.0700 	0.0000 	0.000 	1 	1.0000 	0.0000 	1	1	1.0600 	0.9400; 
    29	1	15.3000 	2.3400 	0.0000 	0.000 	1 	1.0000 	0.0000 	1	1	1.0600 	0.9400; 
    30	1	3.2400 	1.6200 	0.0000 	0.000 	1 	1.0000 	0.0000 	1	1	1.0600 	0.9400; 
    31	1	5.2200 	2.6100 	0.0000 	0.000 	1 	1.0000 	0.0000 	1	1	1.0600 	0.9400; 
    32	1	1.4400 	0.7200 	0.0000 	0.000 	1 	1.0000 	0.0000 	1	1	1.0600 	0.9400; 
    33	1	3.4200 	1.7100 	0.0000 	0.000 	1 	1.0000 	0.0000 	1	1	1.0600 	0.9400; 
    34	1	0.0000 	0.0000 	0.0000 	0.000 	1 	1.0000 	0.0000 	1	1	1.0600 	0.9400; 
    35	1	5.4000 	2.7000 	0.0000 	0.000 	1 	1.0000 	0.0000 	1	1	1.0600 	0.9400; 
    36	1	0.0000 	0.0000 	0.0000 	0.000 	1 	1.0000 	0.0000 	1	1	1.0600 	0.9400; 
    37	1	0.0000 	0.0000 	0.0000 	0.000 	1 	1.0000 	0.0000 	1	1	1.0600 	0.9400; 
    38	1	12.6000 	6.3000 	0.0000 	0.000 	1 	1.0000 	0.0000 	1	1	1.0600 	0.9400; 
    39	1	0.0000 	0.0000 	0.0000 	0.000 	1 	1.0000 	0.0000 	1	1	1.0600 	0.9400; 
    40	1	0.0000 	0.0000 	0.0000 	0.000 	1 	1.0000 	0.0000 	1	1	1.0600 	0.9400; 
    41	1	5.6700 	2.7000 	0.0000 	0.000 	1 	1.0000 	0.0000 	1	1	1.0600 	0.9400; 
    42	1	6.3900 	3.9600 	0.0000 	0.000 	1 	1.0000 	0.0000 	1	1	1.0600 	0.9400; 
    43	1	1.8000 	0.9000 	0.0000 	0.000 	1 	1.0000 	0.0000 	1	1	1.0600 	0.9400; 
    44	1	10.8000 	1.6200 	0.0000 	0.000 	1 	1.0000 	0.0000 	1	1	1.0600 	0.9400; 
    45	1	0.0000 	0.0000 	0.0000 	0.000 	1 	1.0000 	0.0000 	1	1	1.0600 	0.9400; 
    46	1	0.0000 	0.0000 	0.0000 	0.000 	1 	1.0000 	0.0000 	1	1	1.0600 	0.9400; 
    47	1	26.7300 	10.4400 	0.0000 	0.000 	1 	1.0000 	0.0000 	1	1	1.0600 	0.9400; 
    48	1	0.0000 	0.0000 	0.0000 	0.000 	1 	1.0000 	0.0000 	1	1	1.0600 	0.9400; 
    49	1	16.2000 	7.6500 	0.0000 	0.000 	1 	1.0000 	0.0000 	1	1	1.0600 	0.9400; 
    50	1	18.9000 	9.4500 	0.0000 	0.000 	1 	1.0000 	0.0000 	1	1	1.0600 	0.9400; 
    51	1	16.2000 	4.7700 	0.0000 	0.000 	1 	1.0000 	0.0000 	1	1	1.0600 	0.9400; 
    52	1	4.4100 	1.9800 	0.0000 	0.000 	1 	1.0000 	0.0000 	1	1	1.0600 	0.9400; 
    53	1	18.0000 	9.0000 	0.0000 	6.300 	1 	1.0000 	0.0000 	1	1	1.0600 	0.9400; 
    54	1	3.6900 	1.2600 	0.0000 	0.000 	1 	1.0000 	0.0000 	1	1	1.0600 	0.9400; 
    55	1	6.1200 	3.0600 	0.0000 	0.000 	1 	1.0000 	0.0000 	1	1	1.0600 	0.9400; 
    56	1	6.8400 	1.9800 	0.0000 	0.000 	1 	1.0000 	0.0000 	1	1	1.0600 	0.9400; 
    57	1	6.0300 	1.8000 	0.0000 	0.000 	1 	1.0000 	0.0000 	1	1	1.0600 	0.9400; 
];

%% generator data
%	bus	Pg	Qg	Qmax	Qmin	Vg	mBase	status	Pmax	Pmin
mpc.gen = [
    1	122.5000 	0.0 	110.0 	-123.0 	1.0 	100.0 	1	140.0000 	0.0000; 
    2	0.0000 	16.5 	130.0 	-17.0 	1.0 	100.0 	1	140.0000 	0.0000; 
    3	30.0000 	10.0 	70.0 	-10.0 	1.0 	100.0 	1	210.0000 	0.0000; 
    6	0.0000 	8.5 	55.0 	-30.0 	1.0 	100.0 	1	240.0000 	0.0000; 
    8	579.5000 	30.0 	120.0 	-140.0 	1.0 	100.0 	1	659.0000 	0.0000;
    9	0.0000 	3.0 	110.0 	-10.0 	1.0 	100.0 	1	300.0000 	0.0000; 
    12	259.5000 	2.5 	95.0 	-150.0 	1.0 	100.0 	1	219.0000 	0.0000; 
];

%% generator cost data
%	2	startup	shutdown	n	c(n-1)	...	c0
mpc.gencost = [
    2	0	0	3	0.0365	16.960624	0.0000; 
    2	0	0	3	0.0265	18.269494	0.0000; 
    2	0	0	3	0.0235	14.075557	0.0000; 
    2	0	0	3	0.03265	8.269494	0.0000; 
    2	0	0	3	0.0155	5.441037	0.0000; 
    2	0	0	3	0.02265	18.269494	0.0000; 
    2	0	0	3	0.0265	17.188979	0.0000; 
];

%% branch data
%	fbus	tbus	r	x	b	rateA	rateB	rateC	ratio	angle	status	angmin	angmax
mpc.branch = [
    1	2	0.0083 	0.0280 	0.1290 	1005	1005	1005	0	0	1	-30.0 	30.0; 
    1	6	0.0083 	0.0280 	0.1290 	1005	1005	1005	0	0	1	-30.0 	30.0; 
    2	3	0.0298 	0.0850 	0.0818 	326	326	326	0	0	1	-30.0 	30.0; 
    2	8	0.0298 	0.0850 	0.0818 	326	326	326	0	0	1	-30.0 	30.0; 
    3	4	0.0112 	0.0366 	0.0380 	767	767	767	0	0	1	-30.0 	30.0; 
    4	5	0.0625 	0.1320 	0.0258 	201	201	201	0	0	1	-30.0 	30.0; 
    4	6	0.0430 	0.1480 	0.0348 	191	191	191	0	0	1	-30.0 	30.0; 
    6	7	0.0200 	0.1020 	0.0276 	283	283	283	0	0	1	-30.0 	30.0; 
    6	8	0.0339 	0.1730 	0.0470 	167	167	167	0	0	1	-30.0 	30.0; 
    8	9	0.0099 	0.0505 	0.0548 	570	570	570	0	0	1	-30.0 	30.0; 
    9	10	0.0369 	0.1679 	0.0440 	171	171	171	0	0	1	-30.0 	30.0; 
    9	11	0.0258 	0.0848 	0.0218 	331	331	331	0	0	1	-30.0 	30.0; 
    9	12	0.0648 	0.2950 	0.0772 	98	98	98	0	0	1	-30.0 	30.0; 
    9	13	0.0481 	0.1580 	0.0406 	178	178	178	0	0	1	-30.0 	30.0; 
    13	14	0.0132 	0.0434 	0.0110 	647	647	647	0	0	1	-30.0 	30.0; 
    13	15	0.0269 	0.0869 	0.0230 	323	323	323	0	0	1	-30.0 	30.0; 
    1	15	0.0178 	0.0910 	0.0988 	317	317	317	0	0	1	-30.0 	30.0; 
    1	16	0.0454 	0.2060 	0.0546 	140	140	140	0	0	1	-30.0 	30.0; 
    1	17	0.0238 	0.1080 	0.0286 	266	266	266	0	0	1	-30.0 	30.0; 
    3	15	0.0162 	0.0530 	0.0544 	530	530	530	0	0	1	-30.0 	30.0; 
    4	18	0.0000 	0.5550 	0.0000 	53	53	53	0.97	0	1	-30.0 	30.0; 
    4	18	0.0000 	0.4300 	0.0000 	69	69	69	0.978	0	1	-30.0 	30.0; 
    5	6	0.0302 	0.0641 	0.0124 	414	414	414	0	0	1	-30.0 	30.0; 
    7	8	0.0139 	0.0712 	0.0194 	405	405	405	0	0	1	-30.0 	30.0; 
    10	12	0.0277 	0.1262 	0.0328 	228	228	228	0	0	1	-30.0 	30.0; 
    11	13	0.0223 	0.0732 	0.0188 	384	384	384	0	0	1	-30.0 	30.0; 
    12	13	0.0178 	0.0580 	0.0604 	484	484	484	0	0	1	-30.0 	30.0; 
    12	16	0.0180 	0.0813 	0.0216 	353	353	353	0	0	1	-30.0 	30.0; 
    12	17	0.0397 	0.1790 	0.0476 	160	160	160	0	0	1	-30.0 	30.0; 
    14	15	0.0171 	0.0547 	0.0148 	512	512	512	0	0	1	-30.0 	30.0; 
    18	19	0.4610 	0.6850 	0.0000 	36	36	36	0	0	1	-30.0 	30.0; 
    19	20	0.2830 	0.4340 	0.0000 	57	57	57	0	0	1	-30.0 	30.0; 
    21	20	0.0000 	0.7767 	0.0000 	38	38	38	1.043	0	1	-30.0 	30.0; 
    21	22	0.0736 	0.1170 	0.0000 	213	213	213	0	0	1	-30.0 	30.0; 
    22	23	0.0099 	0.0152 	0.0000 	1617	1617	1617	0	0	1	-30.0 	30.0; 
    23	24	0.1660 	0.2560 	0.0084 	97	97	97	0	0	1	-30.0 	30.0; 
    24	25	0.0000 	1.1820 	0.0000 	25	25	25	1	0	1	-30.0 	30.0; 
    24	25	0.0000 	1.2300 	0.0000 	24	24	24	1	0	1	-30.0 	30.0; 
    24	26	0.0000 	0.0473 	0.0000 	621	621	621	1.043	0	1	-30.0 	30.0; 
    26	27	0.1650 	0.2540 	0.0000 	97	97	97	0	0	1	-30.0 	30.0; 
    27	28	0.0618 	0.0954 	0.0000 	259	259	259	0	0	1	-30.0 	30.0; 
    28	29	0.0418 	0.0587 	0.0000 	408	408	408	0	0	1	-30.0 	30.0; 
    7	29	0.0000 	0.0648 	0.0000 	453	453	453	0.967	0	1	-30.0 	30.0; 
    25	30	0.1350 	0.2020 	0.0000 	121	121	121	0	0	1	-30.0 	30.0; 
    30	31	0.3260 	0.4970 	0.0000 	50	50	50	0	0	1	-30.0 	30.0; 
    31	32	0.5070 	0.7550 	0.0000 	33	33	33	0	0	1	-30.0 	30.0; 
    32	33	0.0392 	0.0360 	0.0000 	552	552	552	0	0	1	-30.0 	30.0; 
    34	32	0.0000 	0.9530 	0.0000 	31	31	31	0.975	0	1	-30.0 	30.0; 
    34	35	0.0520 	0.0780 	0.0032 	313	313	313	0	0	1	-30.0 	30.0; 
    35	36	0.0430 	0.0537 	0.0016 	427	427	427	0	0	1	-30.0 	30.0; 
    36	37	0.0290 	0.0366 	0.0000 	629	629	629	0	0	1	-30.0 	30.0; 
    37	38	0.0651 	0.1009 	0.0020 	245	245	245	0	0	1	-30.0 	30.0; 
    37	39	0.0239 	0.0379 	0.0000 	655	655	655	0	0	1	-30.0 	30.0; 
    36	40	0.0300 	0.0466 	0.0000 	530	530	530	0	0	1	-30.0 	30.0; 
    22	38	0.0192 	0.0295 	0.0000 	834	834	834	0	0	1	-30.0 	30.0; 
    11	41	0.0000 	0.7490 	0.0000 	40	40	40	0.955	0	1	-30.0 	30.0; 
    41	42	0.2070 	0.3520 	0.0000 	72	72	72	0	0	1	-30.0 	30.0; 
    41	43	0.0000 	0.4120 	0.0000 	72	72	72	0	0	1	-30.0 	30.0; 
    38	44	0.0289 	0.0585 	0.0020 	450	450	450	0	0	1	-30.0 	30.0; 
    15	45	0.0000 	0.1042 	0.0000 	282	282	282	0.955	0	1	-30.0 	30.0; 
    14	46	0.0000 	0.0735 	0.0000 	400	400	400	0.9	0	1	-30.0 	30.0; 
    46	47	0.0230 	0.0680 	0.0032 	409	409	409	0	0	1	-30.0 	30.0; 
    47	48	0.0182 	0.0233 	0.0000 	993	993	993	0	0	1	-30.0 	30.0; 
    48	49	0.0834 	0.1290 	0.0048 	191	191	191	0	0	1	-30.0 	30.0; 
    49	50	0.0801 	0.1280 	0.0000 	195	195	195	0	0	1	-30.0 	30.0; 
    50	51	0.1386 	0.2200 	0.0000 	113	113	113	0	0	1	-30.0 	30.0; 
    10	51	0.0000 	0.0712 	0.0000 	412	412	412	0.93	0	1	-30.0 	30.0; 
    13	49	0.0000 	0.1910 	0.0000 	154	154	154	0.895	0	1	-30.0 	30.0; 
    29	52	0.1442 	0.1870 	0.0000 	125	125	125	0	0	1	-30.0 	30.0; 
    52	53	0.0762 	0.0984 	0.0000 	236	236	236	0	0	1	-30.0 	30.0; 
    53	54	0.1878 	0.2320 	0.0000 	99	99	99	0	0	1	-30.0 	30.0; 
    54	55	0.1732 	0.2265 	0.0000 	103	103	103	0	0	1	-30.0 	30.0; 
    11	43	0.0000 	0.1530 	0.0000 	192	192	192	0.958	0	1	-30.0 	30.0; 
    44	45	0.0624 	0.1242 	0.0040 	212	212	212	0	0	1	-30.0 	30.0; 
    40	56	0.0000 	1.1950 	0.0000 	25	25	25	0.958	0	1	-30.0 	30.0; 
    56	41	0.5530 	0.5490 	0.0000 	38	38	38	0	0	1	-30.0 	30.0; 
    56	42	0.2125 	0.3540 	0.0000 	72	72	72	0	0	1	-30.0 	30.0; 
    39	57	0.0000 	1.3550 	0.0000 	22	22	22	0.98	0	1	-30.0 	30.0; 
    57	56	0.1740 	0.2600 	0.0000 	94	94	94	0	0	1	-30.0 	30.0; 
    38	49	0.1150 	0.1770 	0.0030 	139	139	139	0	0	1	-30.0 	30.0; 
    38	48	0.0312 	0.0482 	0.0000 	511	511	511	0	0	1	-30.0 	30.0; 
    9	55	0.0000 	0.1205 	0.0000 	244	244	244	0.94	0	1	-30.0 	30.0; 
];